new line.
this line edit on dev.
Creating a new branch is quick & simple--master.