new line.
this line edit on dev.
Creating a new branch is quick AND simple.
Creating a new branch is quick AND simple.
